project/outputs/reanudacion_20260910/python_plots/selected_curve_buses.csv
set_name,bus_i,base_kv,vm_initial,vm_final,vm_min
all_physical,10,500,1.02890173682,1.00184821801,1.00184821801
all_physical,11,500,0.988769931985,0.935634837833,0.935634837833
all_physical,12,500,1.01669444718,1.00530660273,0.972831102623
all_physical,15,500,1.01168427886,0.98842287439,0.957285975123
all_physical,19,500,1.0092234272,0.980777663278,0.950258425994
all_physical,100,330,1.04769424869,1.01248449586,1.01248449586
all_physical,102,13.8,1.04,1.04,1.04
all_physical,104,13.8,1.04,1.04,1.04
all_physical,106,13.8,1.04,1.04,1.04
all_physical,108,13.8,1.04,1.04,1.04
all_physical,115,220,1.02242912486,0.954615125394,0.950754843001
all_physical,117,220,1.01552309681,0.949606009678,0.945664852054
all_physical,118,220,1.01768019554,0.949658121432,0.945855497817
all_physical,190,10.5,1.06914851442,0.829653872759,0.829653872759
all_physical,191,10.5,1.07848420922,0.841363990364,0.841363990364
all_physical,192,10.5,1.01157874209,0.755220970601,0.755220970601
all_physical,193,132,1.0057052203,0.752877918509,0.752877918509
all_physical,200,330,1.01399588665,0.842555399204,0.842555399204
all_physical,201,13.2,nan,nan,nan
all_physical,202,13.2,nan,nan,nan
all_physical,203,13.2,nan,nan,nan
all_physical,204,13.2,nan,nan,nan
all_physical,205,11,nan,nan,nan
all_physical,206,11,nan,nan,nan
all_physical,207,11,1.02737066322,0.683476966166,0.683476966166
all_physical,208,11,1.02737066322,0.683476966166,0.683476966166
all_physical,209,11,1.02737066322,0.683476966166,0.683476966166
all_physical,210,330,1.01394339218,0.840545709264,0.840545709264
all_physical,211,330,1.01394386285,0.840587777792,0.840587777792
all_physical,212,33,1.02751263654,0.683720711976,0.683720711976
all_physical,213,330,1.0135308991,0.838482811276,0.838482811276
all_physical,214,33,nan,nan,nan
all_physical,215,132,nan,nan,nan
all_physical,216,33,1.02737066322,0.683476966166,0.683476966166
all_physical,217,33,1.02731196155,0.683376227138,0.683376227138
all_physical,218,33,1.02744164233,0.68359880566,0.68359880566
all_physical,219,13.2,1.02744164233,0.68359880566,0.68359880566
all_physical,220,132,1.04075155381,0.798935954216,0.798935954216
all_physical,221,132,1.04134254825,1.02075028403,1.02075028403
all_physical,222,33,1.00573186383,0.753703187082,0.753703187082
all_physical,223,132,1.04461862009,1.02905552812,1.02905552812
all_physical,224,330,1.01402397447,0.842894409995,0.842894409995
all_physical,226,132,1.04813025635,1.03060380149,1.03060380149
all_physical,227,33,1.02735839844,0.683455921731,0.683455921731
all_physical,230,132,1.03520468554,0.798968488045,0.798968488045
all_physical,240,132,1.00640789396,0.849829189788,0.849829189788
all_physical,242,13.2,0.966664655532,0.792622212017,0.792622212017
all_physical,243,132,1.01029491166,0.871907246744,0.871907246744
all_physical,244,33,0.969336306939,0.799739354348,0.799739354348
all_physical,246,132,1.04122418803,1.02309937337,1.02309937337
all_physical,250,132,1.03259797355,0.930851025501,0.930851025501
all_physical,251,13.2,1.04,0.942806612053,0.942806612053
all_physical,252,13.2,nan,nan,nan
all_physical,253,132,1.01753618412,0.752023901393,0.752023901393
all_physical,254,33,1.0260509718,0.769640085154,0.769640085154
all_physical,255,33,1.01622147757,0.678500803813,0.678500803813
all_physical,256,33,1.03011567796,0.774842443295,0.774842443295
all_physical,257,33,1.02052637898,0.677226416963,0.677226416963
all_physical,258,132,1.01287896551,0.883351631643,0.883351631643
all_physical,259,132,1.00583550547,0.753076613843,0.753076613843
all_physical,261,132,1.0057736469,0.752946638891,0.752946638891
all_physical,264,132,1.05824200431,1.04191098169,1.04191098169
all_physical,265,33,1.0059811756,0.754720325791,0.754720325791
all_physical,266,132,1.0497285935,1.0310616613,1.0310616613
all_physical,268,132,1.00573944812,0.752832000468,0.752832000468
all_physical,269,132,1.00573944812,0.752832000468,0.752832000468
all_physical,271,132,1.02317044381,0.998142954894,0.998142954894
all_physical,272,132,1.03627886615,1.0182787927,1.0182787927
all_physical,273,132,1.04134157844,1.02075326452,1.02075326452
all_physical,275,132,1.04328846017,1.02932541156,1.02932541156
all_physical,280,13.2,1.07711520311,1.04292922495,1.04292922495
all_physical,281,13.2,1.01973441395,0.973508328421,0.973508328421
all_physical,282,13.2,0.976945238989,0.921741867325,0.921741867325
all_physical,300,132,1.00214970652,0.636869276395,0.636869276395
all_physical,310,132,1.00196059022,0.635927289102,0.635927289102
all_physical,311,132,1.0238345102,0.992787010177,0.992787010177
all_physical,315,132,1.03544256507,0.937528550898,0.937528550898
all_physical,316,132,nan,nan,nan
all_physical,317,132,nan,nan,nan
all_physical,318,132,nan,nan,nan
all_physical,320,132,0.964173110487,0.524545326933,0.524545326933
all_physical,322,132,0.960183920335,0.515356633047,0.515356633047
all_physical,330,132,0.956525806923,0.85546045933,0.85546045933
all_physical,332,13.2,0.959052682664,0.789429829562,0.789429829562
all_physical,334,33,0.970878462535,0.808649331,0.808649331
all_physical,400,132,0.994793115926,0.96812067813,0.96812067813
all_physical,401,132,0.994729934742,0.968044013925,0.968044013925
all_physical,402,132,1.033610074,0.984010409201,0.984010409201
all_physical,403,132,1.01549922513,0.941111028924,0.941111028924
all_physical,404,132,0.98607992956,0.967777389185,0.967777389185
all_physical,405,132,0.999209646627,0.989104360495,0.989104360495
all_physical,406,13.2,0.994729934742,0.968044013925,0.968044013925
all_physical,407,33,1.02176551206,0.997934362036,0.997934362036
all_physical,408,10.4,0.984385546609,0.955405383617,0.955405383617
all_physical,409,10.4,0.984384621508,0.955404262428,0.955404262428
all_physical,410,66,0.990036570675,0.967855810577,0.967855810577
all_physical,411,132,0.986064420525,0.967776294808,0.967776294808
all_physical,412,132,0.999481785854,0.990639168451,0.990639168451
all_physical,413,33,1.04410319124,1.00381280563,1.00381280563
all_physical,415,13.2,1.02133955724,1.00074894111,1.00074894111
all_physical,416,66,1.00253047504,0.982349594792,0.982349594792
all_physical,417,35,0.988062007858,0.982615096459,0.982615096459
all_physical,418,35,0.992513579832,0.987566785935,0.987566785935
all_physical,420,33,0.983094940752,0.95370512661,0.95370512661
all_physical,422,13.8,0.979719713605,0.949728519776,0.949728519776
all_physical,423,35,0.992515547506,0.987570137039,0.987570137039
all_physical,424,35,0.992516403536,0.987571700393,0.987571700393
all_physical,437,13.8,0.994729934742,0.968044013925,0.968044013925
all_physical,438,13.8,0.994729934742,0.968044013925,0.968044013925
all_physical,440,132,0.9575002392,0.932717109782,0.932717109782
all_physical,441,132,0.984785944522,0.88737226648,0.88737226648
all_physical,442,132,0.945344317357,0.918234791611,0.918234791611
all_physical,444,132,0.974248796387,0.952839244502,0.952839244502
all_physical,445,132,0.973110195027,0.95150162329,0.95150162329
all_physical,446,132,1.02885582743,0.940047787416,0.940047787416
all_physical,447,132,nan,nan,nan
all_physical,448,132,1.00122328668,0.913236641989,0.913236641989
all_physical,449,132,0.99163147469,0.972412724163,0.972412724163
all_physical,450,132,0.992770242212,0.969814671196,0.969814671196
all_physical,451,33,0.975191095179,0.968170544404,0.968170544404
all_physical,453,0.4,1.03,1.03,1.03
all_physical,454,132,1.03975639223,0.965915906694,0.965915906694
all_physical,455,132,0.988934335064,0.893793355588,0.893793355588
all_physical,456,132,0.995139449616,0.972589052963,0.972589052963
all_physical,457,132,0.976951877066,0.87774422906,0.87774422906
all_physical,458,132,1.04352264254,0.970620642951,0.970620642951
all_physical,459,132,1.02321478608,0.923890510839,0.923890510839
all_physical,460,132,1.02321478608,0.923890510839,0.923890510839
all_physical,461,132,1.02390326435,0.923369420374,0.923369420374
all_physical,462,35,1.01710042101,0.867936247996,0.867936247996
all_physical,463,35,1.01709460638,0.867928470327,0.867928470327
all_physical,464,13.8,0.977562056756,0.834408838483,0.834408838483
all_physical,465,132,1.01928377576,0.933216446078,0.933216446078
all_physical,466,10.5,0.977257996716,0.834303464484,0.834303464484
all_physical,467,132,1.02348235841,0.924736524825,0.924736524825
all_physical,468,10.5,1.01710042101,0.867936247996,0.867936247996
all_physical,470,132,1.02331507946,0.923981068663,0.923981068663
all_physical,472,35,1.02331507946,0.923981068663,0.923981068663
all_physical,474,35,1.04322689864,0.930781493939,0.930781493939
all_physical,475,35,nan,nan,nan
all_physical,476,0.4,nan,nan,nan
all_physical,477,35,1.05510600432,0.973599473531,0.973599473531
all_physical,478,0.4,1.04,1.04,1.04
all_physical,479,33,1.02674045739,0.922412188462,0.922412188462
all_physical,480,132,1.04846912323,0.987453451843,0.987453451843
all_physical,481,132,nan,nan,nan
all_physical,482,132,nan,nan,nan
all_physical,483,132,1.05091861152,0.990786220529,0.990786220529
all_physical,484,33,1.02627386662,0.922566949122,0.922566949122
all_physical,490,132,0.997823538179,0.975732222835,0.975732222835
all_physical,491,11.5,1.03,1.03,1.03
all_physical,492,11.5,0.997823538179,0.975732222835,0.975732222835
all_physical,493,11.5,1.03,1.03,1.03
all_physical,494,132,1.03753341915,0.829500205277,0.829500205277
all_physical,495,132,1.05020722686,0.991419680623,0.991419680623
all_physical,500,33,1.00719604539,0.977617573164,0.977617573164
all_physical,501,33,1.01268182319,0.836015095438,0.836015095438
all_physical,504,33,1.03520138194,0.937224636424,0.937224636424
all_physical,506,33,nan,nan,nan
all_physical,508,33,1.00073752876,0.992444201049,0.992444201049
all_physical,510,33,1.04121806336,0.799127359566,0.799127359566
all_physical,511,33,1.03795223745,0.802438076755,0.802438076755
all_physical,512,33,1.03394022322,0.985532760737,0.985532760737
all_physical,513,33,1.04098811182,0.997122915937,0.997122915937
all_physical,514,13.2,0.989300691053,0.967822710367,0.967822710367
all_physical,515,13.2,0.98954251963,0.967833345452,0.967833345452
all_physical,516,13.2,1.02211078634,0.998193544492,0.998193544492
all_physical,517,33,1.04092314917,1.00018760503,1.00018760503
all_physical,518,33,nan,nan,nan
all_physical,519,33,0.945611338442,0.925213604804,0.925213604804
all_physical,520,33,1.02223833627,0.998342601879,0.998342601879
all_physical,521,33,1.04322324152,1.00476742505,1.00476742505
all_physical,522,33,1.05578925037,1.02284831118,1.02284831118
all_physical,523,11,nan,nan,nan
all_physical,524,33,1.05014765514,1.01822101776,1.01822101776
all_physical,525,11,nan,nan,nan
all_physical,526,33,1.01467095074,0.916041081506,0.916041081506
all_physical,527,33,1.0784951546,1.04961785347,1.04961785347
all_physical,528,33,1.10268382182,1.07849317596,1.07849317596
all_physical,532,33,1.00475003998,0.987834715744,0.987834715744
all_physical,533,33,1.02924326931,1.02059518066,1.02059518066
all_physical,534,33,1.03312146551,1.02550712422,1.02550712422
all_physical,535,36.7,0.984062784225,0.981702301451,0.981702301451
all_physical,536,11,1,1,1
all_physical,537,6.6,1.05303375461,1.01987268245,1.01987268245
all_physical,538,33,1.05443270852,1.02295272461,1.02295272461
all_physical,539,33,1.06631922225,1.03610436876,1.03610436876
all_physical,540,33,1.00514646688,0.973231916828,0.973231916828
all_physical,541,33,1.03917799767,1.03363866698,1.03363866698
all_physical,542,33,1.04004905706,1.02023052886,1.02023052886
all_physical,544,33,0.975198136728,0.968180140388,0.968180140388
all_physical,545,33,1.01829635092,0.952029997729,0.948106585321
all_physical,546,33,1.06919721616,1.00021548206,0.996401649127
all_physical,547,33,nan,nan,nan
all_physical,548,13.2,nan,nan,nan
all_physical,549,33,0.954732675694,0.934527426627,0.934527426627
all_physical,550,33,1.01860094684,0.925457037371,0.925457037371
all_physical,551,33,1.00466153631,0.99170909104,0.99170909104
all_physical,552,33,1.00667108103,0.994672161547,0.994672161547
all_physical,553,33,0.984144015921,0.978627575178,0.978627575178
all_physical,554,33,1.02145419602,0.924227527823,0.924227527823
all_physical,556,33,0.968340617484,0.860861576633,0.857498808992
all_physical,557,13.2,0.967868832285,0.8602561146,0.856905899445
all_physical,558,33,1.00614917699,0.997404679145,0.997404679145
all_physical,559,33,1.01040820564,1.00227506326,1.00227506326
all_physical,560,33,1.03698118355,1.03098036013,1.03098036013
all_physical,561,33,1.03952993819,1.03424490069,1.03424490069
all_physical,562,33,1.0353281711,1.02956037567,1.02956037567
all_physical,563,33,1.03709929463,1.0317010632,1.0317010632
all_physical,564,33,1.03545640536,1.0303038789,1.0303038789
all_physical,565,33,1.0379591626,1.03309061409,1.03309061409
all_physical,566,33,1.03261999574,1.02726502366,1.02726502366
all_physical,567,33,1.03677919345,1.03245535133,1.03245535133
all_physical,568,33,1.00291820041,0.985976700668,0.985976700668
all_physical,570,33,0.972078024891,0.906440059761,0.906440059761
all_physical,571,33,0.974927760745,0.912080631511,0.912080631511
all_physical,572,33,1.00213162565,0.994172933697,0.994172933697
all_physical,573,33,1.01697525786,0.924381969225,0.924381969225
all_physical,576,33,nan,nan,nan
all_physical,577,33,nan,nan,nan
all_physical,578,33,1.00847508992,1.00366899451,1.00366899451
all_physical,579,33,1.06133706804,1.04610881017,1.04610881017
all_physical,580,33,1.02323460798,0.930765764949,0.930765764949
all_physical,581,33,nan,nan,nan
all_physical,582,33,nan,nan,nan
all_physical,583,33,1.03973111374,1.02010529368,1.02010529368
all_physical,598,33,1.03712127104,0.763174546613,0.763174546613
all_physical,599,33,1.04105770676,0.768291124856,0.768291124856
all_physical,601,0.7,1.00622610242,0.968600927136,0.968600927136
all_physical,602,0.6,1,1,1
all_physical,603,0.7,nan,nan,nan
all_physical,604,6,1.04,1.01521624859,1.01521624859
all_physical,605,0.7,1.00408212797,0.98713611653,0.98713611653
all_physical,607,10.4,1,1,1
all_physical,608,0.7,1,1,1
all_physical,609,0.7,1,1,1
all_physical,618,0.4,1,1,1
all_physical,619,11,1,1,1
all_physical,620,6.3,1.04,1.04,1.04
all_physical,621,0.9,nan,nan,nan
all_physical,622,0.9,nan,nan,nan
all_physical,623,0.9,nan,nan,nan
all_physical,624,0.9,nan,nan,nan
all_physical,650,0.7,1.02,1.02,1.02
all_physical,651,0.7,1,1,1
all_physical,652,0.6,1,1,1
all_physical,654,0.7,1.04339154461,1.00859909629,1.00859909629
all_physical,656,0.7,1.03638200441,0.78242611361,0.78242611361
all_physical,657,0.7,1.02,0.625701457864,0.625701457864
all_physical,658,0.7,1.02,1.02,1.02
all_physical,659,0.4,1,1,1
all_physical,661,11,1.05,0.964585720865,0.964585720865
all_physical,662,11,1.04264691833,0.954615890559,0.954615890559
all_physical,663,0.4,1.10675416863,1.07780008016,1.07780008016
all_physical,664,0.58,0.967341826714,0.947358985574,0.947358985574
all_physical,665,0.7,1.04503556935,0.772757229829,0.772757229829
all_physical,670,10.5,nan,nan,nan
all_physical,671,10.5,nan,nan,nan
all_physical,673,13.2,nan,nan,nan
all_physical,674,13.2,nan,nan,nan
all_physical,675,0.69,1.01505604,0.984586250459,0.984586250459
all_physical,676,0.69,0.995785628,0.995785628,0.995785628
all_physical,679,0.7,1.03,1.03,1.03
all_physical,680,0.7,1.03,1.03,1.03
all_physical,684,0.7,1.03,1.03,1.03
all_physical,685,0.7,1.03,1.03,1.03
all_physical,686,0.7,1.03,1.03,1.03
all_physical,687,0.6,1.03,1.03,1.03
all_physical,688,0.7,1,1,1
all_physical,691,0.7,1.02,1.02,1.02
all_physical,692,0.7,1.02,1.02,1.02
all_physical,720,132,1.03610299457,1.03913826531,0.983303747235
all_physical,721,132,1.03072609884,1.03091354146,0.973542718482
all_physical,1008,500,1.01626219247,1.00324159287,1.00324159287
all_physical,1226,132,1.03490022753,1.02102191087,1.02102191087
all_physical,1804,13.2,0.966239524883,0.953245049916,0.953245049916
all_physical,2206,132,1.0421645598,1.03077543164,1.03077543164
all_physical,2208,132,1.04215817973,1.03077413038,1.03077413038
all_physical,2222,132,0.957436714635,0.856728337612,0.856728337612
all_physical,2302,132,1.01729169068,0.954147011295,0.954147011295
all_physical,222201,1,0.972957994165,0.858287147548,0.858287147548
all_physical,222202,1,0.980068756832,0.867561688637,0.867561688637
all_physical,222231,33,0.979780983418,0.867240700117,0.867240700117
all_physical,222232,33,0.987798744585,0.877716911811,0.877716911811
all_physical,222291,13.2,0.972957994165,0.858287147548,0.858287147548
all_physical,222292,13.2,0.980068756832,0.867561688637,0.867561688637
all_physical,230201,1,1.00704936048,0.924582999717,0.924582999717
all_physical,230231,33,1.02128969079,0.942474477593,0.942474477593
all_physical,230291,13.2,1.00704936048,0.924582999717,0.924582999717
boundary_ports,1008,500,1.01626219247,1.00324159287,1.00324159287
boundary_ports,1226,132,1.03490022753,1.02102191087,1.02102191087
boundary_ports,2206,132,1.0421645598,1.03077543164,1.03077543164
boundary_ports,2208,132,1.04215817973,1.03077413038,1.03077413038
boundary_ports,2222,132,0.957436714635,0.856728337612,0.856728337612
boundary_ports,2302,132,1.01729169068,0.954147011295,0.954147011295
buses_500kv,10,500,1.02890173682,1.00184821801,1.00184821801
buses_500kv,11,500,0.988769931985,0.935634837833,0.935634837833
buses_500kv,12,500,1.01669444718,1.00530660273,0.972831102623
buses_500kv,15,500,1.01168427886,0.98842287439,0.957285975123
buses_500kv,19,500,1.0092234272,0.980777663278,0.950258425994
buses_500kv,1008,500,1.01626219247,1.00324159287,1.00324159287
switched_shunt_buses,10,500,1.02890173682,1.00184821801,1.00184821801
switched_shunt_buses,12,500,1.01669444718,1.00530660273,0.972831102623
switched_shunt_buses,15,500,1.01168427886,0.98842287439,0.957285975123
switched_shunt_buses,19,500,1.0092234272,0.980777663278,0.950258425994
switched_shunt_buses,212,33,1.02751263654,0.683720711976,0.683720711976
switched_shunt_buses,222,33,1.00573186383,0.753703187082,0.753703187082
switched_shunt_buses,254,33,1.0260509718,0.769640085154,0.769640085154
switched_shunt_buses,255,33,1.01622147757,0.678500803813,0.678500803813
switched_shunt_buses,259,132,1.00583550547,0.753076613843,0.753076613843
switched_shunt_buses,268,132,1.00573944812,0.752832000468,0.752832000468
switched_shunt_buses,269,132,1.00573944812,0.752832000468,0.752832000468
switched_shunt_buses,317,132,nan,nan,nan
switched_shunt_buses,334,33,0.970878462535,0.808649331,0.808649331
switched_shunt_buses,450,132,0.992770242212,0.969814671196,0.969814671196
switched_shunt_buses,566,33,1.03261999574,1.02726502366,1.02726502366
switched_shunt_buses,570,33,0.972078024891,0.906440059761,0.906440059761
switched_shunt_buses,598,33,1.03712127104,0.763174546613,0.763174546613
switched_shunt_buses,1008,500,1.01626219247,1.00324159287,1.00324159287
switched_shunt_buses,2206,132,1.0421645598,1.03077543164,1.03077543164
switched_shunt_buses,2208,132,1.04215817973,1.03077413038,1.03077413038
switched_shunt_buses,230231,33,1.02128969079,0.942474477593,0.942474477593
genq_generator_buses,102,13.8,1.04,1.04,1.04
genq_generator_buses,104,13.8,1.04,1.04,1.04
genq_generator_buses,106,13.8,1.04,1.04,1.04
genq_generator_buses,108,13.8,1.04,1.04,1.04
genq_generator_buses,190,10.5,1.06914851442,0.829653872759,0.829653872759
genq_generator_buses,191,10.5,1.07848420922,0.841363990364,0.841363990364
genq_generator_buses,192,10.5,1.01157874209,0.755220970601,0.755220970601
genq_generator_buses,201,13.2,nan,nan,nan
genq_generator_buses,202,13.2,nan,nan,nan
genq_generator_buses,203,13.2,nan,nan,nan
genq_generator_buses,204,13.2,nan,nan,nan
genq_generator_buses,205,11,nan,nan,nan
genq_generator_buses,206,11,nan,nan,nan
genq_generator_buses,251,13.2,1.04,0.942806612053,0.942806612053
genq_generator_buses,252,13.2,nan,nan,nan
genq_generator_buses,453,0.4,1.03,1.03,1.03
genq_generator_buses,476,0.4,nan,nan,nan
genq_generator_buses,478,0.4,1.04,1.04,1.04
genq_generator_buses,491,11.5,1.03,1.03,1.03
genq_generator_buses,493,11.5,1.03,1.03,1.03
genq_generator_buses,523,11,nan,nan,nan
genq_generator_buses,525,11,nan,nan,nan
genq_generator_buses,536,11,1,1,1
genq_generator_buses,601,0.7,1.00622610242,0.968600927136,0.968600927136
genq_generator_buses,602,0.6,1,1,1
genq_generator_buses,604,6,1.04,1.01521624859,1.01521624859
genq_generator_buses,605,0.7,1.00408212797,0.98713611653,0.98713611653
genq_generator_buses,607,10.4,1,1,1
genq_generator_buses,608,0.7,1,1,1
genq_generator_buses,609,0.7,1,1,1
genq_generator_buses,618,0.4,1,1,1
genq_generator_buses,619,11,1,1,1
genq_generator_buses,620,6.3,1.04,1.04,1.04
genq_generator_buses,650,0.7,1.02,1.02,1.02
genq_generator_buses,651,0.7,1,1,1
genq_generator_buses,652,0.6,1,1,1
genq_generator_buses,654,0.7,1.04339154461,1.00859909629,1.00859909629
genq_generator_buses,656,0.7,1.03638200441,0.78242611361,0.78242611361
genq_generator_buses,657,0.7,1.02,0.625701457864,0.625701457864
genq_generator_buses,658,0.7,1.02,1.02,1.02
genq_generator_buses,659,0.4,1,1,1
genq_generator_buses,661,11,1.05,0.964585720865,0.964585720865
genq_generator_buses,662,11,1.04264691833,0.954615890559,0.954615890559
genq_generator_buses,663,0.4,1.10675416863,1.07780008016,1.07780008016
genq_generator_buses,664,0.58,0.967341826714,0.947358985574,0.947358985574
genq_generator_buses,665,0.7,1.04503556935,0.772757229829,0.772757229829
genq_generator_buses,670,10.5,nan,nan,nan
genq_generator_buses,671,10.5,nan,nan,nan
genq_generator_buses,675,0.69,1.01505604,0.984586250459,0.984586250459
genq_generator_buses,676,0.69,0.995785628,0.995785628,0.995785628
genq_generator_buses,679,0.7,1.03,1.03,1.03
genq_generator_buses,680,0.7,1.03,1.03,1.03
genq_generator_buses,684,0.7,1.03,1.03,1.03
genq_generator_buses,685,0.7,1.03,1.03,1.03
genq_generator_buses,686,0.7,1.03,1.03,1.03
genq_generator_buses,687,0.6,1.03,1.03,1.03
genq_generator_buses,688,0.7,1,1,1
genq_generator_buses,691,0.7,1.02,1.02,1.02
genq_generator_buses,692,0.7,1.02,1.02,1.02
genq_regulated_buses,102,13.8,1.04,1.04,1.04
genq_regulated_buses,104,13.8,1.04,1.04,1.04
genq_regulated_buses,106,13.8,1.04,1.04,1.04
genq_regulated_buses,108,13.8,1.04,1.04,1.04
genq_regulated_buses,201,13.2,nan,nan,nan
genq_regulated_buses,202,13.2,nan,nan,nan
genq_regulated_buses,203,13.2,nan,nan,nan
genq_regulated_buses,204,13.2,nan,nan,nan
genq_regulated_buses,205,11,nan,nan,nan
genq_regulated_buses,206,11,nan,nan,nan
genq_regulated_buses,251,13.2,1.04,0.942806612053,0.942806612053
genq_regulated_buses,252,13.2,nan,nan,nan
genq_regulated_buses,259,132,1.00583550547,0.753076613843,0.753076613843
genq_regulated_buses,453,0.4,1.03,1.03,1.03
genq_regulated_buses,476,0.4,nan,nan,nan
genq_regulated_buses,478,0.4,1.04,1.04,1.04
genq_regulated_buses,491,11.5,1.03,1.03,1.03
genq_regulated_buses,493,11.5,1.03,1.03,1.03
genq_regulated_buses,523,11,nan,nan,nan
genq_regulated_buses,525,11,nan,nan,nan
genq_regulated_buses,536,11,1,1,1
genq_regulated_buses,601,0.7,1.00622610242,0.968600927136,0.968600927136
genq_regulated_buses,602,0.6,1,1,1
genq_regulated_buses,604,6,1.04,1.01521624859,1.01521624859
genq_regulated_buses,605,0.7,1.00408212797,0.98713611653,0.98713611653
genq_regulated_buses,607,10.4,1,1,1
genq_regulated_buses,608,0.7,1,1,1
genq_regulated_buses,609,0.7,1,1,1
genq_regulated_buses,618,0.4,1,1,1
genq_regulated_buses,619,11,1,1,1
genq_regulated_buses,620,6.3,1.04,1.04,1.04
genq_regulated_buses,650,0.7,1.02,1.02,1.02
genq_regulated_buses,651,0.7,1,1,1
genq_regulated_buses,652,0.6,1,1,1
genq_regulated_buses,654,0.7,1.04339154461,1.00859909629,1.00859909629
genq_regulated_buses,656,0.7,1.03638200441,0.78242611361,0.78242611361
genq_regulated_buses,657,0.7,1.02,0.625701457864,0.625701457864
genq_regulated_buses,658,0.7,1.02,1.02,1.02
genq_regulated_buses,659,0.4,1,1,1
genq_regulated_buses,661,11,1.05,0.964585720865,0.964585720865
genq_regulated_buses,662,11,1.04264691833,0.954615890559,0.954615890559
genq_regulated_buses,663,0.4,1.10675416863,1.07780008016,1.07780008016
genq_regulated_buses,664,0.58,0.967341826714,0.947358985574,0.947358985574
genq_regulated_buses,665,0.7,1.04503556935,0.772757229829,0.772757229829
genq_regulated_buses,670,10.5,nan,nan,nan
genq_regulated_buses,671,10.5,nan,nan,nan
genq_regulated_buses,675,0.69,1.01505604,0.984586250459,0.984586250459
genq_regulated_buses,676,0.69,0.995785628,0.995785628,0.995785628
genq_regulated_buses,679,0.7,1.03,1.03,1.03
genq_regulated_buses,680,0.7,1.03,1.03,1.03
genq_regulated_buses,684,0.7,1.03,1.03,1.03
genq_regulated_buses,685,0.7,1.03,1.03,1.03
genq_regulated_buses,686,0.7,1.03,1.03,1.03
genq_regulated_buses,687,0.6,1.03,1.03,1.03
genq_regulated_buses,688,0.7,1,1,1
genq_regulated_buses,691,0.7,1.02,1.02,1.02
genq_regulated_buses,692,0.7,1.02,1.02,1.02
ultc_terminal_buses,10,500,1.02890173682,1.00184821801,1.00184821801
ultc_terminal_buses,12,500,1.01669444718,1.00530660273,0.972831102623
ultc_terminal_buses,15,500,1.01168427886,0.98842287439,0.957285975123
ultc_terminal_buses,19,500,1.0092234272,0.980777663278,0.950258425994
ultc_terminal_buses,100,330,1.04769424869,1.01248449586,1.01248449586
ultc_terminal_buses,102,13.8,1.04,1.04,1.04
ultc_terminal_buses,104,13.8,1.04,1.04,1.04
ultc_terminal_buses,106,13.8,1.04,1.04,1.04
ultc_terminal_buses,108,13.8,1.04,1.04,1.04
ultc_terminal_buses,115,220,1.02242912486,0.954615125394,0.950754843001
ultc_terminal_buses,117,220,1.01552309681,0.949606009678,0.945664852054
ultc_terminal_buses,190,10.5,1.06914851442,0.829653872759,0.829653872759
ultc_terminal_buses,191,10.5,1.07848420922,0.841363990364,0.841363990364
ultc_terminal_buses,192,10.5,1.01157874209,0.755220970601,0.755220970601
ultc_terminal_buses,200,330,1.01399588665,0.842555399204,0.842555399204
ultc_terminal_buses,207,11,1.02737066322,0.683476966166,0.683476966166
ultc_terminal_buses,208,11,1.02737066322,0.683476966166,0.683476966166
ultc_terminal_buses,209,11,1.02737066322,0.683476966166,0.683476966166
ultc_terminal_buses,210,330,1.01394339218,0.840545709264,0.840545709264
ultc_terminal_buses,211,330,1.01394386285,0.840587777792,0.840587777792
ultc_terminal_buses,212,33,1.02751263654,0.683720711976,0.683720711976
ultc_terminal_buses,213,330,1.0135308991,0.838482811276,0.838482811276
ultc_terminal_buses,216,33,1.02737066322,0.683476966166,0.683476966166
ultc_terminal_buses,218,33,1.02744164233,0.68359880566,0.68359880566
ultc_terminal_buses,219,13.2,1.02744164233,0.68359880566,0.68359880566
ultc_terminal_buses,220,132,1.04075155381,0.798935954216,0.798935954216
ultc_terminal_buses,221,132,1.04134254825,1.02075028403,1.02075028403
ultc_terminal_buses,222,33,1.00573186383,0.753703187082,0.753703187082
ultc_terminal_buses,223,132,1.04461862009,1.02905552812,1.02905552812
ultc_terminal_buses,224,330,1.01402397447,0.842894409995,0.842894409995
ultc_terminal_buses,226,132,1.04813025635,1.03060380149,1.03060380149
ultc_terminal_buses,240,132,1.00640789396,0.849829189788,0.849829189788
ultc_terminal_buses,242,13.2,0.966664655532,0.792622212017,0.792622212017
ultc_terminal_buses,244,33,0.969336306939,0.799739354348,0.799739354348
ultc_terminal_buses,246,132,1.04122418803,1.02309937337,1.02309937337
ultc_terminal_buses,250,132,1.03259797355,0.930851025501,0.930851025501
ultc_terminal_buses,251,13.2,1.04,0.942806612053,0.942806612053
ultc_terminal_buses,253,132,1.01753618412,0.752023901393,0.752023901393
ultc_terminal_buses,254,33,1.0260509718,0.769640085154,0.769640085154
ultc_terminal_buses,255,33,1.01622147757,0.678500803813,0.678500803813
ultc_terminal_buses,256,33,1.03011567796,0.774842443295,0.774842443295
ultc_terminal_buses,257,33,1.02052637898,0.677226416963,0.677226416963
ultc_terminal_buses,258,132,1.01287896551,0.883351631643,0.883351631643
ultc_terminal_buses,259,132,1.00583550547,0.753076613843,0.753076613843
ultc_terminal_buses,261,132,1.0057736469,0.752946638891,0.752946638891
ultc_terminal_buses,264,132,1.05824200431,1.04191098169,1.04191098169
ultc_terminal_buses,265,33,1.0059811756,0.754720325791,0.754720325791
ultc_terminal_buses,266,132,1.0497285935,1.0310616613,1.0310616613
ultc_terminal_buses,271,132,1.02317044381,0.998142954894,0.998142954894
ultc_terminal_buses,272,132,1.03627886615,1.0182787927,1.0182787927
ultc_terminal_buses,275,132,1.04328846017,1.02932541156,1.02932541156
ultc_terminal_buses,280,13.2,1.07711520311,1.04292922495,1.04292922495
ultc_terminal_buses,311,132,1.0238345102,0.992787010177,0.992787010177
ultc_terminal_buses,315,132,1.03544256507,0.937528550898,0.937528550898
ultc_terminal_buses,330,132,0.956525806923,0.85546045933,0.85546045933
ultc_terminal_buses,332,13.2,0.959052682664,0.789429829562,0.789429829562
ultc_terminal_buses,334,33,0.970878462535,0.808649331,0.808649331
ultc_terminal_buses,400,132,0.994793115926,0.96812067813,0.96812067813
ultc_terminal_buses,401,132,0.994729934742,0.968044013925,0.968044013925
ultc_terminal_buses,402,132,1.033610074,0.984010409201,0.984010409201
ultc_terminal_buses,403,132,1.01549922513,0.941111028924,0.941111028924
ultc_terminal_buses,405,132,0.999209646627,0.989104360495,0.989104360495
ultc_terminal_buses,406,13.2,0.994729934742,0.968044013925,0.968044013925
ultc_terminal_buses,407,33,1.02176551206,0.997934362036,0.997934362036
ultc_terminal_buses,408,10.4,0.984385546609,0.955405383617,0.955405383617
ultc_terminal_buses,409,10.4,0.984384621508,0.955404262428,0.955404262428
ultc_terminal_buses,410,66,0.990036570675,0.967855810577,0.967855810577
ultc_terminal_buses,412,132,0.999481785854,0.990639168451,0.990639168451
ultc_terminal_buses,413,33,1.04410319124,1.00381280563,1.00381280563
ultc_terminal_buses,415,13.2,1.02133955724,1.00074894111,1.00074894111
ultc_terminal_buses,416,66,1.00253047504,0.982349594792,0.982349594792
ultc_terminal_buses,417,35,0.988062007858,0.982615096459,0.982615096459
ultc_terminal_buses,420,33,0.983094940752,0.95370512661,0.95370512661
ultc_terminal_buses,422,13.8,0.979719713605,0.949728519776,0.949728519776
ultc_terminal_buses,423,35,0.992515547506,0.987570137039,0.987570137039
ultc_terminal_buses,424,35,0.992516403536,0.987571700393,0.987571700393
ultc_terminal_buses,437,13.8,0.994729934742,0.968044013925,0.968044013925
ultc_terminal_buses,438,13.8,0.994729934742,0.968044013925,0.968044013925
ultc_terminal_buses,444,132,0.974248796387,0.952839244502,0.952839244502
ultc_terminal_buses,446,132,1.02885582743,0.940047787416,0.940047787416
ultc_terminal_buses,449,132,0.99163147469,0.972412724163,0.972412724163
ultc_terminal_buses,451,33,0.975191095179,0.968170544404,0.968170544404
ultc_terminal_buses,453,0.4,1.03,1.03,1.03
ultc_terminal_buses,458,132,1.04352264254,0.970620642951,0.970620642951
ultc_terminal_buses,460,132,1.02321478608,0.923890510839,0.923890510839
ultc_terminal_buses,461,132,1.02390326435,0.923369420374,0.923369420374
ultc_terminal_buses,462,35,1.01710042101,0.867936247996,0.867936247996
ultc_terminal_buses,464,13.8,0.977562056756,0.834408838483,0.834408838483
ultc_terminal_buses,466,10.5,0.977257996716,0.834303464484,0.834303464484
ultc_terminal_buses,468,10.5,1.01710042101,0.867936247996,0.867936247996
ultc_terminal_buses,470,132,1.02331507946,0.923981068663,0.923981068663
ultc_terminal_buses,472,35,1.02331507946,0.923981068663,0.923981068663
ultc_terminal_buses,477,35,1.05510600432,0.973599473531,0.973599473531
ultc_terminal_buses,478,0.4,1.04,1.04,1.04
ultc_terminal_buses,479,33,1.02674045739,0.922412188462,0.922412188462
ultc_terminal_buses,484,33,1.02627386662,0.922566949122,0.922566949122
ultc_terminal_buses,490,132,0.997823538179,0.975732222835,0.975732222835
ultc_terminal_buses,491,11.5,1.03,1.03,1.03
ultc_terminal_buses,492,11.5,0.997823538179,0.975732222835,0.975732222835
ultc_terminal_buses,493,11.5,1.03,1.03,1.03
ultc_terminal_buses,494,132,1.03753341915,0.829500205277,0.829500205277
ultc_terminal_buses,495,132,1.05020722686,0.991419680623,0.991419680623
ultc_terminal_buses,500,33,1.00719604539,0.977617573164,0.977617573164
ultc_terminal_buses,501,33,1.01268182319,0.836015095438,0.836015095438
ultc_terminal_buses,504,33,1.03520138194,0.937224636424,0.937224636424
ultc_terminal_buses,508,33,1.00073752876,0.992444201049,0.992444201049
ultc_terminal_buses,510,33,1.04121806336,0.799127359566,0.799127359566
ultc_terminal_buses,511,33,1.03795223745,0.802438076755,0.802438076755
ultc_terminal_buses,512,33,1.03394022322,0.985532760737,0.985532760737
ultc_terminal_buses,513,33,1.04098811182,0.997122915937,0.997122915937
ultc_terminal_buses,514,13.2,0.989300691053,0.967822710367,0.967822710367
ultc_terminal_buses,515,13.2,0.98954251963,0.967833345452,0.967833345452
ultc_terminal_buses,516,13.2,1.02211078634,0.998193544492,0.998193544492
ultc_terminal_buses,517,33,1.04092314917,1.00018760503,1.00018760503
ultc_terminal_buses,519,33,0.945611338442,0.925213604804,0.925213604804
ultc_terminal_buses,520,33,1.02223833627,0.998342601879,0.998342601879
ultc_terminal_buses,521,33,1.04322324152,1.00476742505,1.00476742505
ultc_terminal_buses,522,33,1.05578925037,1.02284831118,1.02284831118
ultc_terminal_buses,524,33,1.05014765514,1.01822101776,1.01822101776
ultc_terminal_buses,526,33,1.01467095074,0.916041081506,0.916041081506
ultc_terminal_buses,528,33,1.10268382182,1.07849317596,1.07849317596
ultc_terminal_buses,532,33,1.00475003998,0.987834715744,0.987834715744
ultc_terminal_buses,533,33,1.02924326931,1.02059518066,1.02059518066
ultc_terminal_buses,534,33,1.03312146551,1.02550712422,1.02550712422
ultc_terminal_buses,535,36.7,0.984062784225,0.981702301451,0.981702301451
ultc_terminal_buses,536,11,1,1,1
ultc_terminal_buses,537,6.6,1.05303375461,1.01987268245,1.01987268245
ultc_terminal_buses,540,33,1.00514646688,0.973231916828,0.973231916828
ultc_terminal_buses,541,33,1.03917799767,1.03363866698,1.03363866698
ultc_terminal_buses,542,33,1.04004905706,1.02023052886,1.02023052886
ultc_terminal_buses,545,33,1.01829635092,0.952029997729,0.948106585321
ultc_terminal_buses,546,33,1.06919721616,1.00021548206,0.996401649127
ultc_terminal_buses,549,33,0.954732675694,0.934527426627,0.934527426627
ultc_terminal_buses,550,33,1.01860094684,0.925457037371,0.925457037371
ultc_terminal_buses,551,33,1.00466153631,0.99170909104,0.99170909104
ultc_terminal_buses,552,33,1.00667108103,0.994672161547,0.994672161547
ultc_terminal_buses,553,33,0.984144015921,0.978627575178,0.978627575178
ultc_terminal_buses,554,33,1.02145419602,0.924227527823,0.924227527823
ultc_terminal_buses,556,33,0.968340617484,0.860861576633,0.857498808992
ultc_terminal_buses,557,13.2,0.967868832285,0.8602561146,0.856905899445
ultc_terminal_buses,558,33,1.00614917699,0.997404679145,0.997404679145
ultc_terminal_buses,559,33,1.01040820564,1.00227506326,1.00227506326
ultc_terminal_buses,560,33,1.03698118355,1.03098036013,1.03098036013
ultc_terminal_buses,561,33,1.03952993819,1.03424490069,1.03424490069
ultc_terminal_buses,562,33,1.0353281711,1.02956037567,1.02956037567
ultc_terminal_buses,563,33,1.03709929463,1.0317010632,1.0317010632
ultc_terminal_buses,564,33,1.03545640536,1.0303038789,1.0303038789
ultc_terminal_buses,565,33,1.0379591626,1.03309061409,1.03309061409
ultc_terminal_buses,566,33,1.03261999574,1.02726502366,1.02726502366
ultc_terminal_buses,567,33,1.03677919345,1.03245535133,1.03245535133
ultc_terminal_buses,568,33,1.00291820041,0.985976700668,0.985976700668
ultc_terminal_buses,570,33,0.972078024891,0.906440059761,0.906440059761
ultc_terminal_buses,571,33,0.974927760745,0.912080631511,0.912080631511
ultc_terminal_buses,572,33,1.00213162565,0.994172933697,0.994172933697
ultc_terminal_buses,573,33,1.01697525786,0.924381969225,0.924381969225
ultc_terminal_buses,578,33,1.00847508992,1.00366899451,1.00366899451
ultc_terminal_buses,579,33,1.06133706804,1.04610881017,1.04610881017
ultc_terminal_buses,580,33,1.02323460798,0.930765764949,0.930765764949
ultc_terminal_buses,583,33,1.03973111374,1.02010529368,1.02010529368
ultc_terminal_buses,598,33,1.03712127104,0.763174546613,0.763174546613
ultc_terminal_buses,599,33,1.04105770676,0.768291124856,0.768291124856
ultc_terminal_buses,601,0.7,1.00622610242,0.968600927136,0.968600927136
ultc_terminal_buses,602,0.6,1,1,1
ultc_terminal_buses,604,6,1.04,1.01521624859,1.01521624859
ultc_terminal_buses,605,0.7,1.00408212797,0.98713611653,0.98713611653
ultc_terminal_buses,607,10.4,1,1,1
ultc_terminal_buses,608,0.7,1,1,1
ultc_terminal_buses,609,0.7,1,1,1
ultc_terminal_buses,618,0.4,1,1,1
ultc_terminal_buses,620,6.3,1.04,1.04,1.04
ultc_terminal_buses,650,0.7,1.02,1.02,1.02
ultc_terminal_buses,651,0.7,1,1,1
ultc_terminal_buses,652,0.6,1,1,1
ultc_terminal_buses,654,0.7,1.04339154461,1.00859909629,1.00859909629
ultc_terminal_buses,656,0.7,1.03638200441,0.78242611361,0.78242611361
ultc_terminal_buses,657,0.7,1.02,0.625701457864,0.625701457864
ultc_terminal_buses,658,0.7,1.02,1.02,1.02
ultc_terminal_buses,659,0.4,1,1,1
ultc_terminal_buses,661,11,1.05,0.964585720865,0.964585720865
ultc_terminal_buses,662,11,1.04264691833,0.954615890559,0.954615890559
ultc_terminal_buses,663,0.4,1.10675416863,1.07780008016,1.07780008016
ultc_terminal_buses,664,0.58,0.967341826714,0.947358985574,0.947358985574
ultc_terminal_buses,665,0.7,1.04503556935,0.772757229829,0.772757229829
ultc_terminal_buses,675,0.69,1.01505604,0.984586250459,0.984586250459
ultc_terminal_buses,676,0.69,0.995785628,0.995785628,0.995785628
ultc_terminal_buses,679,0.7,1.03,1.03,1.03
ultc_terminal_buses,680,0.7,1.03,1.03,1.03
ultc_terminal_buses,684,0.7,1.03,1.03,1.03
ultc_terminal_buses,685,0.7,1.03,1.03,1.03
ultc_terminal_buses,686,0.7,1.03,1.03,1.03
ultc_terminal_buses,687,0.6,1.03,1.03,1.03
ultc_terminal_buses,688,0.7,1,1,1
ultc_terminal_buses,691,0.7,1.02,1.02,1.02
ultc_terminal_buses,692,0.7,1.02,1.02,1.02
ultc_terminal_buses,720,132,1.03610299457,1.03913826531,0.983303747235
ultc_terminal_buses,1008,500,1.01626219247,1.00324159287,1.00324159287
ultc_terminal_buses,1226,132,1.03490022753,1.02102191087,1.02102191087
ultc_terminal_buses,1804,13.2,0.966239524883,0.953245049916,0.953245049916
ultc_terminal_buses,2222,132,0.957436714635,0.856728337612,0.856728337612
ultc_terminal_buses,2302,132,1.01729169068,0.954147011295,0.954147011295
ultc_terminal_buses,222201,1,0.972957994165,0.858287147548,0.858287147548
ultc_terminal_buses,222202,1,0.980068756832,0.867561688637,0.867561688637
ultc_terminal_buses,222231,33,0.979780983418,0.867240700117,0.867240700117
ultc_terminal_buses,222232,33,0.987798744585,0.877716911811,0.877716911811
ultc_terminal_buses,222291,13.2,0.972957994165,0.858287147548,0.858287147548
ultc_terminal_buses,222292,13.2,0.980068756832,0.867561688637,0.867561688637
ultc_terminal_buses,230201,1,1.00704936048,0.924582999717,0.924582999717
ultc_terminal_buses,230231,33,1.02128969079,0.942474477593,0.942474477593
ultc_terminal_buses,230291,13.2,1.00704936048,0.924582999717,0.924582999717
worst_40_voltage_drop,201,13.2,nan,nan,nan
worst_40_voltage_drop,202,13.2,nan,nan,nan
worst_40_voltage_drop,203,13.2,nan,nan,nan
worst_40_voltage_drop,204,13.2,nan,nan,nan
worst_40_voltage_drop,205,11,nan,nan,nan
worst_40_voltage_drop,206,11,nan,nan,nan
worst_40_voltage_drop,214,33,nan,nan,nan
worst_40_voltage_drop,215,132,nan,nan,nan
worst_40_voltage_drop,252,13.2,nan,nan,nan
worst_40_voltage_drop,310,132,1.00196059022,0.635927289102,0.635927289102
worst_40_voltage_drop,316,132,nan,nan,nan
worst_40_voltage_drop,317,132,nan,nan,nan
worst_40_voltage_drop,318,132,nan,nan,nan
worst_40_voltage_drop,320,132,0.964173110487,0.524545326933,0.524545326933
worst_40_voltage_drop,322,132,0.960183920335,0.515356633047,0.515356633047
worst_40_voltage_drop,447,132,nan,nan,nan
worst_40_voltage_drop,475,35,nan,nan,nan
worst_40_voltage_drop,476,0.4,nan,nan,nan
worst_40_voltage_drop,481,132,nan,nan,nan
worst_40_voltage_drop,482,132,nan,nan,nan
worst_40_voltage_drop,506,33,nan,nan,nan
worst_40_voltage_drop,518,33,nan,nan,nan
worst_40_voltage_drop,523,11,nan,nan,nan
worst_40_voltage_drop,525,11,nan,nan,nan
worst_40_voltage_drop,547,33,nan,nan,nan
worst_40_voltage_drop,548,13.2,nan,nan,nan
worst_40_voltage_drop,576,33,nan,nan,nan
worst_40_voltage_drop,577,33,nan,nan,nan
worst_40_voltage_drop,581,33,nan,nan,nan
worst_40_voltage_drop,582,33,nan,nan,nan
worst_40_voltage_drop,603,0.7,nan,nan,nan
worst_40_voltage_drop,621,0.9,nan,nan,nan
worst_40_voltage_drop,622,0.9,nan,nan,nan
worst_40_voltage_drop,623,0.9,nan,nan,nan
worst_40_voltage_drop,624,0.9,nan,nan,nan
worst_40_voltage_drop,657,0.7,1.02,0.625701457864,0.625701457864
worst_40_voltage_drop,670,10.5,nan,nan,nan
worst_40_voltage_drop,671,10.5,nan,nan,nan
worst_40_voltage_drop,673,13.2,nan,nan,nan
worst_40_voltage_drop,674,13.2,nan,nan,nan
lowest_40_final_voltage,192,10.5,1.01157874209,0.755220970601,0.755220970601
lowest_40_final_voltage,193,132,1.0057052203,0.752877918509,0.752877918509
lowest_40_final_voltage,207,11,1.02737066322,0.683476966166,0.683476966166
lowest_40_final_voltage,208,11,1.02737066322,0.683476966166,0.683476966166
lowest_40_final_voltage,209,11,1.02737066322,0.683476966166,0.683476966166
lowest_40_final_voltage,212,33,1.02751263654,0.683720711976,0.683720711976
lowest_40_final_voltage,216,33,1.02737066322,0.683476966166,0.683476966166
lowest_40_final_voltage,217,33,1.02731196155,0.683376227138,0.683376227138
lowest_40_final_voltage,218,33,1.02744164233,0.68359880566,0.68359880566
lowest_40_final_voltage,219,13.2,1.02744164233,0.68359880566,0.68359880566
lowest_40_final_voltage,220,132,1.04075155381,0.798935954216,0.798935954216
lowest_40_final_voltage,222,33,1.00573186383,0.753703187082,0.753703187082
lowest_40_final_voltage,227,33,1.02735839844,0.683455921731,0.683455921731
lowest_40_final_voltage,230,132,1.03520468554,0.798968488045,0.798968488045
lowest_40_final_voltage,242,13.2,0.966664655532,0.792622212017,0.792622212017
lowest_40_final_voltage,244,33,0.969336306939,0.799739354348,0.799739354348
lowest_40_final_voltage,253,132,1.01753618412,0.752023901393,0.752023901393
lowest_40_final_voltage,254,33,1.0260509718,0.769640085154,0.769640085154
lowest_40_final_voltage,255,33,1.01622147757,0.678500803813,0.678500803813
lowest_40_final_voltage,256,33,1.03011567796,0.774842443295,0.774842443295
lowest_40_final_voltage,257,33,1.02052637898,0.677226416963,0.677226416963
lowest_40_final_voltage,259,132,1.00583550547,0.753076613843,0.753076613843
lowest_40_final_voltage,261,132,1.0057736469,0.752946638891,0.752946638891
lowest_40_final_voltage,265,33,1.0059811756,0.754720325791,0.754720325791
lowest_40_final_voltage,268,132,1.00573944812,0.752832000468,0.752832000468
lowest_40_final_voltage,269,132,1.00573944812,0.752832000468,0.752832000468
lowest_40_final_voltage,300,132,1.00214970652,0.636869276395,0.636869276395
lowest_40_final_voltage,310,132,1.00196059022,0.635927289102,0.635927289102
lowest_40_final_voltage,320,132,0.964173110487,0.524545326933,0.524545326933
lowest_40_final_voltage,322,132,0.960183920335,0.515356633047,0.515356633047
lowest_40_final_voltage,332,13.2,0.959052682664,0.789429829562,0.789429829562
lowest_40_final_voltage,334,33,0.970878462535,0.808649331,0.808649331
lowest_40_final_voltage,494,132,1.03753341915,0.829500205277,0.829500205277
lowest_40_final_voltage,510,33,1.04121806336,0.799127359566,0.799127359566
lowest_40_final_voltage,511,33,1.03795223745,0.802438076755,0.802438076755
lowest_40_final_voltage,598,33,1.03712127104,0.763174546613,0.763174546613
lowest_40_final_voltage,599,33,1.04105770676,0.768291124856,0.768291124856
lowest_40_final_voltage,656,0.7,1.03638200441,0.78242611361,0.78242611361
lowest_40_final_voltage,657,0.7,1.02,0.625701457864,0.625701457864
lowest_40_final_voltage,665,0.7,1.04503556935,0.772757229829,0.772757229829
